docs/ieee8500_v42_single_case/joint_selection_v3/mv_sensitivity/TOP20_RESPONSE_SLOT_48.csv
slot,bus,line,baseline_rho,baseline_node,dI_P_A_per_kw,dI_Q_A_per_kvar,dRho_P_per_kw,dRho_Q_per_kvar,dRho_AIDC_PF95_per_kw,dI_AIDC_PF95_A_per_kw,path_contains_target,certified_available_flexible_kw,performance_prediction
48,196-29518,line.tpx21459660c0,0.921928783908269,1,-0.0018749893901315318,-0.004697850332789244,-1.2019162757226365e-05,-3.011442521017038e-05,-2.1917295660407016e-05,-0.0034190981230285892,False,,False
48,196-29518,line.tpx260595c0,0.88052243525726,2,-0.000832535887681729,-0.002481874804971085,-5.336768510777468e-06,-1.590945387802689e-05,-1.0565953122561132e-05,-0.0016482886871196157,False,,False
48,196-29518,line.tpx226308719b0,0.8378205528959566,1,-0.0015164263079014972,-0.002669472623949787,-9.720681460878566e-06,-1.7112003999675274e-05,-1.5345125183328963e-05,-0.002393839528603905,False,,False
48,196-29518,line.tpx226308710b0,0.824335386020771,2,-0.001489180787245914,-0.00262151040602987,-9.54603068742399e-06,-1.6804553884808282e-05,-1.5069420443982189e-05,-0.00235082958926892,False,,False
48,196-29518,line.tpx21197413c0,0.8387955193469668,1,-0.001702619100768743,-0.0042516472294096275,-1.0914225004876599e-05,-2.7254148906474818e-05,-1.987223055061277e-05,-0.0031000679659034395,False,,False
48,196-29518,line.tpx2224230689c0,0.8297197938577449,2,-0.0018999436749425058,-0.0043686444731463325,-1.217912612144767e-05,-2.800413123810186e-05,-2.138363893875463e-05,-0.0033358476744431943,False,,False
48,196-29518,line.tpx226308725b0,0.7817574327988267,2,-0.001408993143712678,-0.0024803504183097402,-9.032007331488678e-06,-1.5899682168640794e-05,-1.4257980137716705e-05,-0.002224244901484834,False,,False
48,196-29518,line.ln6291242-1,0.738636336205966,1,-0.05276913558324736,-0.0035395357542427064,-0.00013192283895813173,-8.848839385622309e-06,-0.00013483131181346648,-0.05393252472537922,True,,False
48,196-29518,line.ln5654466-1,0.7386361552440057,1,-0.05276902416696316,-0.00353910879579189,-0.0001319225604173857,-8.84777198950637e-06,-0.00013483068243658322,-0.053932272974638665,True,,False
48,196-29518,line.ln6321409-1,0.7386360170936264,1,-0.052768941554461435,-0.003538793484068492,-0.00013192235388614915,-8.846983710175671e-06,-0.00013483021681046022,-0.05393208672418528,True,,False
48,196-29518,line.xj171_48332_sw,0.7386360171466864,1,-0.05276894102067331,-0.003538793109640892,-0.00013192235255166107,-8.846982774091128e-06,-0.00013483021516829603,-0.05393208606732875,True,,False
48,196-29518,line.ln5513564-1,0.7386359632626351,1,-0.05276890978544202,-0.0035386724936756764,-0.00013192227446362503,-8.84668123418697e-06,-0.00013483003796888643,-0.05393201518754687,True,,False
48,196-29518,line.ln5775442-1,0.7389632358967514,1,-0.052770880245020635,-0.003545354046138982,-0.00013192720061255825,-8.863385115354117e-06,-0.00013484045441805408,-0.05393618176721809,True,,False
48,196-29518,line.ln5896798-1,0.7389631134349844,1,-0.05277081389652949,-0.003545103991484666,-0.00013192703474129708,-8.86275997868946e-06,-0.00013484008307430766,-0.05393603322973664,True,,False
48,196-29518,line.ln5714974-1,0.7389627607642875,1,-0.052770628765586025,-0.0035444098417940495,-0.00013192657191396506,-8.861024604511769e-06,-0.0001348390498570669,-0.05393561994282326,True,,False
48,196-29518,line.ln5473414-1,0.7389624379136263,1,-0.05277046620318515,-0.0035438042226019206,-0.00013192616550800063,-8.859510556513683e-06,-0.00013483814580759102,-0.05393525832302014,True,,False
48,196-29518,line.ln5742828-2,0.7389622212322231,1,-0.05277036033072591,-0.0035434119462536273,-0.00013192590082683475,-8.858529865651832e-06,-0.00013483755878892676,-0.05393502351556038,True,,False
48,196-29518,line.ln5742828-1,0.7389621407654026,1,-0.05277032161453121,-0.0035432688771663834,-0.0001319258040363147,-8.85817219292706e-06,-0.00013483734443706723,-0.05393493777483076,True,,False
48,196-29518,line.ln5815900-1,0.7389620777863074,1,-0.05277029156727053,-0.0035431579064493235,-0.00013192572891818077,-8.857894766123309e-06,-0.00013483717813315255,-0.05393487125325924,True,,False
48,196-29518,line.a8735_48332_sw,0.7389620777723644,1,-0.05277029166276748,-0.0035431576493181183,-0.00013192572915693423,-8.857894123248666e-06,-0.00013483717816060333,-0.05393487126424125,True,,False
48,196-29519,line.tpx21459660c0,0.921928783908269,1,-0.0018646387290459643,-0.004688680931977274,-1.1952812365711996e-05,-3.0055646999815888e-05,-2.1831625805418264e-05,-0.003405733625642113,False,,False
48,196-29519,line.tpx260595c0,0.88052243525726,2,-0.0008261317880027264,-0.002477509347286855,-5.295716589748256e-06,-1.5881470174949897e-05,-1.0515703403126466e-05,-0.0016404497308879756,False,,False
48,196-29519,line.tpx226308719b0,0.8378205528959566,1,-0.0014604072148216574,-0.0026627371415059997,-9.361584710432247e-06,-1.7068827830146738e-05,-1.4971837112236105e-05,-0.002335606589504081,False,,False
48,196-29519,line.tpx226308710b0,0.824335386020771,2,-0.0014341681863498934,-0.0026148959386063098,-9.193385809957988e-06,-1.676215345264298e-05,-1.4702839218410738e-05,-0.002293642918066552,False,,False
48,196-29519,line.tpx21197413c0,0.8387955193469668,1,-0.0016927971887668036,-0.004243335949084326,-1.0851264030553587e-05,-2.7200871468513466e-05,-1.9791758129267207e-05,-0.0030875142681648874,False,,False
48,196-29519,line.tpx2224230689c0,0.8297197938577449,2,-0.0017156036747820735,-0.004180762631065704,-1.0997459453765401e-05,-2.6799760455553656e-05,-1.9806114738106938e-05,-0.0030897538991391344,False,,False
48,196-29519,line.tpx226308725b0,0.7817574327988267,2,-0.001356942793684368,-0.0024740921188239895,-8.698351241565039e-06,-1.5859564864273423e-05,-1.3911138127504888e-05,-0.0021701375478901087,False,,False
48,196-29519,line.ln6291242-1,0.738636336205966,1,-0.05163002245899406,-0.0032640923653843856,-0.00012907505614750958,-8.160230913434319e-06,-0.00013175719434334465,-0.05270287773733159,True,,False
48,196-29519,line.ln5654466-1,0.7386361552440057,1,-0.05162991980495235,-0.0032636685942577515,-0.000129074799512352,-8.159171485666583e-06,-0.00013175658949111924,-0.052702635796456315,True,,False
48,196-29519,line.ln6321409-1,0.7386360170936264,1,-0.051629843744478876,-0.0032633556112102724,-0.00012907460936123494,-8.15838902806787e-06,-0.00013175614215862647,-0.05270245686342995,True,,False
48,196-29519,line.xj171_48332_sw,0.7386360171466864,1,-0.051629843798480124,-0.003263354733377355,-0.00012907460949623806,-8.158386833490017e-06,-0.00013175614157230674,-0.05270245662890147,True,,False
48,196-29519,line.ln5513564-1,0.7386359632626351,1,-0.05162981438067504,-0.0032632355483315223,-0.00012907453595167873,-8.158088870835467e-06,-0.00013175597009215892,-0.05270238803686625,True,,False
48,196-29519,line.ln5775442-1,0.7389632358967514,1,-0.051631642400479905,-0.0032698657629168792,-0.00012907910600118422,-8.174664407278875e-06,-0.00013176598825702818,-0.05270639530281924,True,,False
48,196-29519,line.ln5896798-1,0.7389631134349844,1,-0.05163158117687772,-0.003269617667484681,-0.00012907895294222982,-8.17404416869616e-06,-0.00013176563133551023,-0.05270625253419192,True,,False
48,196-29519,line.ln5714974-1,0.7389627607642875,1,-0.051631410416007384,-0.0032689287101277387,-0.00012907852603999403,-8.172321775301583e-06,-0.00013176463830994278,-0.05270585532398921,True,,False
48,196-29519,line.ln5473414-1,0.7389624379136263,1,-0.05163126034142351,-0.0032683276672855754,-0.00012907815085355656,-8.170819168207277e-06,-0.00013176376924043707,-0.052705507696176594,True,,False
48,196-29519,line.ln5742828-2,0.7389622212322231,1,-0.051631162595043634,-0.003267938321044994,-0.00012907790648758466,-8.169845802652453e-06,-0.00013176320494467876,-0.05270528197787602,True,,False
48,196-29519,line.ln5742828-1,0.7389621407654026,1,-0.051631126917243364,-0.0032677963741321037,-0.00012907781729309953,-8.169490935294732e-06,-0.00013176299911093372,-0.05270519964438171,True,,False
48,196-29519,line.ln5815900-1,0.7389620777863074,1,-0.051631099131668634,-0.003267686192572228,-0.00012907774782916492,-8.169215481412806e-06,-0.00013176283910968641,-0.05270513564387956,True,,False
48,196-29519,line.a8735_48332_sw,0.7389620777723644,1,-0.05163109887976702,-0.003267686169550643,-0.00012907774719944642,-8.169215423847742e-06,-0.00013176283846104718,-0.05270513538441112,True,,False
48,196-29520,line.tpx21459660c0,0.921928783908269,1,-0.0024741703378339253,-0.004919332353665595,-1.5860066268191808e-05,-3.1534181754278023e-05,-2.6224850580644314e-05,-0.004091076690575932,False,,False
48,196-29520,line.tpx260595c0,0.88052243525726,2,-0.0008429629447874731,-0.0024831130999984907,-5.403608620446754e-06,-1.5917391666675496e-05,-1.0635402257189483e-05,-0.00165912275211839,False,,False
48,196-29520,line.tpx226308719b0,0.8378205528959566,1,-0.0014635352169989346,-0.002664742784588725,-9.381636006444705e-06,-1.7081684516584428e-05,-1.4996114196725901e-05,-0.002339393814683312,False,,False
48,196-29520,line.tpx226308710b0,0.824335386020771,2,-0.0014372399861883878,-0.0026168655474378966,-9.21307683454664e-06,-1.6774779150241503e-05,-1.4726680109116822e-05,-0.002297362097021409,False,,False
48,196-29520,line.tpx21197413c0,0.8387955193469668,1,-0.002211377050656438,-0.004418051726602812,-1.4175493914470039e-05,-2.832084440129723e-05,-2.3484105314420237e-05,-0.0036635204290488147,False,,False
48,196-29520,line.tpx2224230689c0,0.8297197938577449,2,-0.001665649185738971,-0.004106273925842174,-1.0677238370115916e-05,-2.6322268755374356e-05,-1.9328949722253686e-05,-0.003015316156673704,False,,False
48,196-29520,line.tpx226308725b0,0.7817574327988267,2,-0.0013598491908553,-0.002475955669389407,-8.716981992673567e-06,-1.5871510701259695e-05,-1.3933695285353861e-05,-0.0021736564645110906,False,,False
48,196-29520,line.ln6291242-1,0.738636336205966,1,-0.05204759150137761,-0.0033600066320218502,-0.00013011897875347955,-8.400016580090153e-06,-0.0001328799306865941,-0.05315197227461876,True,,False
48,196-29520,line.ln5654466-1,0.7386361552440057,1,-0.052047487104658785,-0.0033595826847658827,-0.0001301187177616403,-8.398956711896943e-06,-0.00013287932133292617,-0.053151728533175464,True,,False
48,196-29520,line.ln6321409-1,0.7386360170936264,1,-0.05204740969210775,-0.0033592695549202745,-0.0001301185242302827,-8.398173887314009e-06,-0.00013287887049957098,-0.05315154819982132,True,,False
48,196-29520,line.xj171_48332_sw,0.7386360171466864,1,-0.05204741036877181,-0.0033592684835355158,-0.00013011852592192952,-8.39817120884545e-06,-0.00013287887131084778,-0.05315154852433823,True,,False
48,196-29520,line.ln5513564-1,0.7386359632626351,1,-0.05204737996010067,-0.003359149346835011,-0.00013011844990024057,-8.397873367094189e-06,-0.00013287869739330934,-0.053151478957327296,True,,False
48,196-29520,line.ln5775442-1,0.7389632358967514,1,-0.0520492362136622,-0.003365783777098841,-0.00013012309053417326,-8.414459442718236e-06,-0.00013288878960666695,-0.05315551584266347,True,,False
48,196-29520,line.ln5896798-1,0.7389631134349844,1,-0.05204917397654185,-0.00336553547396079,-0.00013012293494135685,-8.413838684884212e-06,-0.0001328884299806173,-0.053155371992248374,True,,False
48,196-29520,line.ln5714974-1,0.7389627607642875,1,-0.05204900037540483,-0.003364846159769286,-0.00013012250093852318,-8.412115399425435e-06,-0.00013288742956124466,-0.05315497182449313,True,,False
48,196-29520,line.ln5473414-1,0.7389624379136263,1,-0.0520488478567529,-0.00336424475625563,-0.00013012211964186227,-8.410611890607989e-06,-0.00013288655408513346,-0.053154621634065466,True,,False
48,196-29520,line.ln5742828-2,0.7389622212322231,1,-0.05204874851304453,-0.003363855182669795,-0.00013012187128258468,-8.409637956674487e-06,-0.00013288598560925243,-0.053154394243711635,True,,False
48,196-29520,line.ln5742828-1,0.7389621407654026,1,-0.05204871211785189,-0.0033637131346040405,-0.00013012178029464527,-8.409282836518983e-06,-0.0001328857778989625,-0.05315431115957761,True,,False
48,196-29520,line.ln5815900-1,0.7389620777863074,1,-0.05204868401713725,-0.0033636029853596483,-0.0001301217100428409,-8.409007463350271e-06,-0.00013288561713637457,-0.053154246854557136,True,,False
48,196-29520,line.a8735_48332_sw,0.7389620777723644,1,-0.05204868419841091,-0.003363602631395679,-0.00013012171049603394,-8.40900657850252e-06,-0.00013288561729873222,-0.05315424691948847,True,,False
48,196-31070,line.tpx21459660c0,0.921928783908269,1,-0.0005709138763876354,-0.0021582433486884156,-3.659704335801095e-06,-1.3834893260844527e-05,-8.207013847486862e-06,-0.0012802941602095205,False,,False
48,196-31070,line.tpx260595c0,0.88052243525726,2,-0.0005260946218044182,-0.0019356695604244578,-3.3724014217861864e-06,-1.2408138207853359e-05,-7.450759225570131e-06,-0.0011623184391944946,False,,False
48,196-31070,line.tpx226308719b0,0.8378205528959566,1,-0.0007144905754614683,-0.001985387322349652,-4.580067791415399e-06,-1.272684180991801e-05,-8.763178403461245e-06,-0.001367055830941423,False,,False
48,196-31070,line.tpx226308710b0,0.824335386020771,2,-0.0007016533760832999,-0.0019497160137689207,-4.4977780518373756e-06,-1.249817957549304e-05,-8.60573102197305e-06,-0.0013424940394218378,False,,False
48,196-31070,line.tpx21197413c0,0.8387955193469668,1,-0.000517813152342228,-0.0019533462176184457,-3.31931507913108e-06,-1.2521450112934485e-05,-7.4349167050427266e-06,-0.0011598470059846638,False,,False
48,196-31070,line.tpx2224230689c0,0.8297197938577449,2,-0.0004998766112578323,-0.0018858015036471443,-3.2043372516499247e-06,-1.2088471177229554e-05,-7.177625583518099e-06,-0.0011197095910290486,False,,False
48,196-31070,line.tpx226308725b0,0.7817574327988267,2,-0.0006638715753126689,-0.0018447300144686096,-4.255587021273488e-06,-1.1825192400449769e-05,-8.142339803983214e-06,-0.0012702050094148753,False,,False
48,196-31070,line.ln6291242-1,0.738636336205966,1,-0.04656270608984414,-0.002552773942255726,-0.00011640676522461924,-6.381934855637095e-06,-0.00011850440577195411,-0.047401762308778385,True,,False
48,196-31070,line.ln5654466-1,0.7386361552440057,1,-0.046562668788851624,-0.0025523738048320865,-0.00011640667197210242,-6.380934512106862e-06,-0.00011850398372241918,-0.04740159348897483,True,,False
48,196-31070,line.ln6321409-1,0.7386360170936264,1,-0.04656264096533391,-0.002552078366960586,-0.00011640660241335476,-6.380195917365938e-06,-0.00011850367139932002,-0.047401468559724685,True,,False
48,196-31070,line.xj171_48332_sw,0.7386360171466864,1,-0.04656264093003415,-0.0025520774801748303,-0.00011640660232509203,-6.380193700417092e-06,-0.00011850367058238145,-0.04740146823295254,True,,False
48,196-31070,line.ln5513564-1,0.7386359632626351,1,-0.046562630257142246,-0.002551964950924912,-0.00011640657564288004,-6.379912377341146e-06,-0.00011850355143374597,-0.04740142057348482,True,,False
48,196-31070,line.ln5775442-1,0.7389632358967514,1,-0.04656341097029326,-0.002558222218908668,-0.0001164085274257265,-6.395555547267229e-06,-0.00011851064487790173,-0.047404257951163944,True,,False
48,196-31070,line.ln5896798-1,0.7389631134349844,1,-0.046563388136462436,-0.0025579880137627242,-0.00011640847034116719,-6.3949700344068106e-06,-0.00011851039534457183,-0.047404158137824295,True,,False
48,196-31070,line.ln5714974-1,0.7389627607642875,1,-0.0465633239269323,-0.0025573374552152472,-0.00011640830981735073,-6.393343638055882e-06,-0.0001185097002501261,-0.04740388010004011,True,,False
48,196-31070,line.ln5473414-1,0.7389624379136263,1,-0.046563266950784055,-0.0025567700064925702,-0.00011640816737695792,-6.3919250162802754e-06,-0.00011850909153130439,-0.047403636612516224,True,,False
48,196-31070,line.ln5742828-2,0.7389622212322231,1,-0.04656322958535952,-0.002556402412352554,-0.00011640807396340325,-6.391006030892488e-06,-0.00011850869606185987,-0.04740347842474071,True,,False
48,196-31070,line.ln5742828-1,0.7389621407654026,1,-0.04656321594001156,-0.002556268386769034,-0.00011640803985002446,-6.3906709669714346e-06,-0.00011850855181829601,-0.04740342072731375,True,,False
48,196-31070,line.ln5815900-1,0.7389620777863074,1,-0.046563205247792894,-0.002556164380109749,-0.00011640801311946225,-6.390410950296577e-06,-0.0001185084396243857,-0.04740337584975935,True,,False
48,196-31070,line.a8735_48332_sw,0.7389620777723644,1,-0.04656320507885425,-0.002556164013697071,-0.00011640801269713341,-6.390410034251559e-06,-0.00011850843890096742,-0.047403375560386686,True,,False
48,196-35813,line.tpx21459660c0,0.921928783908269,1,-0.0024382673867222593,-0.004882684767650858,-1.5629919145665472e-05,-3.129926133110805e-05,-2.5917488849040115e-05,-0.004043128260448047,False,,False
48,196-35813,line.tpx260595c0,0.88052243525726,2,-0.0008428708837726617,-0.002483439689001443,-5.403018485727884e-06,-1.5919485185922344e-05,-1.0635500228970939e-05,-0.0016591380357177754,False,,False
48,196-35813,line.tpx226308719b0,0.8378205528959566,1,-0.0014603717783785441,-0.002663765361376136,-9.361357553694383e-06,-1.7075418983159008e-05,-1.4973776362728175e-05,-0.0023359091125889106,False,,False
48,196-35813,line.tpx226308710b0,0.824335386020771,2,-0.001434133386595704,-0.0026159056865679986,-9.193162734622007e-06,-1.6768626195984293e-05,-1.470474363092795e-05,-0.0022939400064176064,False,,False
48,196-35813,line.tpx21197413c0,0.8387955193469668,1,-0.002276103163580956,-0.004440504243220289,-1.4590404894765374e-05,-2.8464770789882188e-05,-2.3946322610959246e-05,-0.0037356263273067617,False,,False
48,196-35813,line.tpx2224230689c0,0.8297197938577449,2,-0.0016658391437829323,-0.0041069272098468446,-1.0678456049906249e-05,-2.6326456473380055e-05,-1.9331543838389464e-05,-0.0030157208387861676,False,,False
48,196-35813,line.tpx226308725b0,0.7817574327988267,2,-0.0013569098690666692,-0.0024750474944639222,-8.69814018633619e-06,-1.5865689067084965e-05,-1.3912940000397085e-05,-0.002170418640059731,False,,False
48,196-35813,line.ln6291242-1,0.738636336205966,1,-0.052067759757051135,-0.003359642875324198,-0.00013016939939264338,-8.399107188306054e-06,-0.00013293005242313313,-0.05317202096924761,True,,False
48,196-35813,line.ln5654466-1,0.7386361552440057,1,-0.0520676553182966,-0.00335921887020163,-0.00013016913829572152,-8.398047175506296e-06,-0.0001329294429168527,-0.05317177716674878,True,,False
48,196-35813,line.ln6321409-1,0.7386360170936264,1,-0.05206757781175497,-0.0033589057367464648,-0.0001301689445293852,-8.397264341875044e-06,-0.00013292899184554478,-0.053171596738217634,True,,False
48,196-35813,line.xj171_48332_sw,0.7386360171466864,1,-0.05206757704672782,-0.0033589051376736734,-0.000130168942616804,-8.397262844184183e-06,-0.0001329289894406964,-0.053171595776284775,True,,False
48,196-35813,line.ln5513564-1,0.7386359632626351,1,-0.052067547985302554,-0.0033587855950543144,-0.00013016886996325416,-8.396963987633566e-06,-0.00013292881855774864,-0.053171527423100634,True,,False
48,196-35813,line.ln5775442-1,0.7389632358967514,1,-0.05206940564596607,-0.003365420016848475,-0.0001301735141149285,-8.413550042107865e-06,-0.00013293891428189632,-0.053175565712754946,True,,False
48,196-35813,line.ln5896798-1,0.7389631134349844,1,-0.05206934334219682,-0.0033651717591567376,-0.00013017335835546762,-8.412929397905167e-06,-0.00013293855452655104,-0.05317542181062843,True,,False
48,196-35813,line.ln5714974-1,0.7389627607642875,1,-0.05206916963123831,-0.0033644824062264433,-0.0001301729240780758,-8.411206015579431e-06,-0.0001329375538007816,-0.053175021520318874,True,,False
48,196-35813,line.ln5473414-1,0.7389624379136263,1,-0.052069016976815874,-0.003363880995010504,-0.0001301725424420752,-8.409702487499615e-06,-0.0001329366779789995,-0.053174671191589085,True,,False
48,196-35813,line.ln5742828-2,0.7389622212322231,1,-0.05206891753627474,-0.0033634914150582063,-0.00013017229384065798,-8.408728537634413e-06,-0.00013293610925574231,-0.053174443702309934,True,,False
48,196-35813,line.ln5742828-1,0.7389621407654026,1,-0.052068881230894704,-0.0033633493824822835,-0.00013017220307720567,-8.408373456225693e-06,-0.00013293590178267491,-0.05317436071307977,True,,False
48,196-35813,line.ln5815900-1,0.7389620777863074,1,-0.05206885296720998,-0.0033632392456297566,-0.00013017213241800496,-8.408098114087714e-06,-0.00013293574062288996,-0.05317429624916223,True,,False
48,196-35813,line.a8735_48332_sw,0.7389620777723644,1,-0.05206885209003076,-0.0033632386803787995,-0.00013017213022509244,-8.408096700940337e-06,-0.00013293573796549838,-0.05317429518619401,True,,False
48,196-36167,line.tpx21459660c0,0.921928783908269,1,-0.0006068329627311186,-0.0021153438965484384,-3.8899548893134295e-06,-1.355989677276348e-05,-8.34687742638695e-06,-0.0013021128785137119,False,,False
48,196-36167,line.tpx260595c0,0.88052243525726,2,-0.0005568581989336963,-0.001897742694964677,-3.5696038393484564e-06,-1.216501727541175e-05,-7.56805165700258e-06,-0.0011806160584878853,False,,False
48,196-36167,line.tpx226308719b0,0.8378205528959566,1,-0.0007239383746622252,-0.001950462779078066,-4.640630606789209e-06,-1.2502966532601523e-05,-8.750156973638616e-06,-0.001365024487888178,False,,False
48,196-36167,line.tpx226308710b0,0.824335386020771,2,-0.0007109314267239597,-0.0019154189562584634,-4.557252735404305e-06,-1.2278326642689574e-05,-8.592943541050523e-06,-0.001340499192404405,False,,False
48,196-36167,line.tpx21197413c0,0.8387955193469668,1,-0.000550178668333956,-0.0019145462435545824,-3.5267863354726536e-06,-1.2272732330509406e-05,-7.560638379625842e-06,-0.0011794595872202478,False,,False
48,196-36167,line.tpx2224230689c0,0.8297197938577449,2,-0.000531142369041504,-0.001848361772744056,-3.4047587759156173e-06,-1.1848472902253882e-05,-7.299163489528943e-06,-0.0011386695043627015,False,,False
48,196-36167,line.tpx226308725b0,0.7817574327988267,2,-0.0006726500336640129,-0.0018122797441151306,-4.311859190142542e-06,-1.1617177846867666e-05,-8.130240895443953e-06,-0.001268317579692274,False,,False
48,196-36167,line.ln6291242-1,0.738636336205966,1,-0.04669475475614604,-0.0024234537844449733,-0.00011673688689040063,-6.058634461125756e-06,-0.00011872826373686157,-0.047491305494728665,True,,False
48,196-36167,line.ln5654466-1,0.7386361552440057,1,-0.04669471190970853,-0.0024230537149492193,-0.00011673677977430685,-6.057634287348623e-06,-0.00011872782787954484,-0.047491131151806934,True,,False
48,196-36167,line.ln6321409-1,0.7386360170936264,1,-0.04669468002410326,-0.0024227583311926537,-0.00011673670006023817,-6.056895827999398e-06,-0.00011872750544562575,-0.047491002178255956,True,,False
48,196-36167,line.xj171_48332_sw,0.7386360171466864,1,-0.04669467947354633,-0.0024227584417531034,-0.00011673669868383918,-6.05689610438942e-06,-0.00011872750416007175,-0.04749100166403849,True,,False
48,196-36167,line.ln5513564-1,0.7386359632626351,1,-0.04669466781163578,-0.00242264488107935,-0.000116736669529105,-6.056612202709477e-06,-0.00011872738169136794,-0.0474909526765395,True,,False
48,196-36167,line.ln5775442-1,0.7389632358967514,1,-0.0466955351564593,-0.0024289008844675664,-0.00011673883789115047,-6.072252211164475e-06,-0.00011873469067559744,-0.04749387627023867,True,,False
48,196-36167,line.ln5896798-1,0.7389631134349844,1,-0.046695509104921484,-0.0024286666431692083,-0.00011673877276230371,-6.071666607931903e-06,-0.00011873443306827619,-0.047493773227309306,True,,False
48,196-36167,line.ln5714974-1,0.7389627607642875,1,-0.04669543588391889,-0.002428016235967334,-0.00011673858970984163,-6.0700405899449805e-06,-0.00011873371556954707,-0.04749348622779757,True,,False
48,196-36167,line.ln5473414-1,0.7389624379136263,1,-0.04669537105655763,-0.002427448861993753,-0.00011673842764137188,-6.068622154964398e-06,-0.00011873308728404497,-0.0474932349136295,True,,False
48,196-36167,line.ln5742828-2,0.7389622212322231,1,-0.04669532857002423,-0.0024270813229634314,-0.00011673832142505836,-6.067703307410799e-06,-0.0001187326790571455,-0.0474930716228588,True,,False
48,196-36167,line.ln5742828-1,0.7389621407654026,1,-0.04669531310213415,-0.002426947360106624,-0.00011673828275532427,-6.067368400253237e-06,-0.00011873253030875202,-0.047493012123507,True,,False
48,196-36167,line.ln5815900-1,0.7389620777863074,1,-0.04669530098544783,-0.002426843441867277,-0.00011673825246361069,-6.067108604679294e-06,-0.00011873241462636269,-0.047492965850547166,True,,False
48,196-36167,line.a8735_48332_sw,0.7389620777723644,1,-0.04669530092331797,-0.002426842775548721,-0.00011673825230829049,-6.067106938845157e-06,-0.00011873241392350928,-0.04749296556940899,True,,False
48,198-5320,line.tpx21459660c0,0.921928783908269,1,-0.0003318562430081329,-0.0015926068360414547,-2.127283609043573e-06,-1.0209018179718754e-05,-5.482825614199178e-06,-0.000855320795814159,False,,False
48,198-5320,line.tpx260595c0,0.88052243525726,2,-0.0003039274725153973,-0.0014300669062379257,-1.9482530289050004e-06,-9.167095552820026e-06,-4.961331627772787e-06,-0.0007739677339381151,False,,False
48,198-5320,line.tpx226308719b0,0.8378205528959566,1,-0.00038750071396975727,-0.0014623309836849785,-2.4839789357078423e-06,-9.373916562083195e-06,-5.565036312937483e-06,-0.0008681456648175813,False,,False
48,198-5320,line.tpx226308710b0,0.824335386020771,2,-0.000380538518186313,-0.0014360573916150088,-2.4393494755803324e-06,-9.20549610006205e-06,-5.465049723956743e-06,-0.0008525477569347845,False,,False
48,198-5320,line.tpx21197413c0,0.8387955193469668,1,-0.00030082626687999436,-0.001441362457313744,-1.928373505655223e-06,-9.23950293152398e-06,-4.965251259000666e-06,-0.0007745791964005697,False,,False
48,198-5320,line.tpx2224230689c0,0.8297197938577449,2,-0.0002904216814272331,-0.0013916249942127479,-1.8616774450919138e-06,-8.92067303981392e-06,-4.793760880776362e-06,-0.0007478266973945909,False,,False
48,198-5320,line.tpx226308725b0,0.7817574327988267,2,-0.0003600477300764737,-0.001358730272762898,-2.307998269723832e-06,-8.709809440787808e-06,-5.170774192047587e-06,-0.0008066407739589795,False,,False
48,198-5320,line.ln6291242-1,0.738636336205966,1,-0.04539646313796197,-0.0024318182601632543,-0.00011349115784492492,-6.079545650405915e-06,-0.00011548940786692264,-0.046195763146761354,True,,False
48,198-5320,line.ln5654466-1,0.7386361552440057,1,-0.045396446394335044,-0.0024314256875754836,-0.00011349111598579764,-6.078564218914284e-06,-0.00011548904342686374,-0.04619561737076469,True,,False
48,198-5320,line.ln6321409-1,0.7386360170936264,1,-0.045396433722004303,-0.0024311357807675904,-0.00011349108430502852,-6.07783945189011e-06,-0.00011548877352669382,-0.04619550941067421,True,,False
48,198-5320,line.xj171_48332_sw,0.7386360171466864,1,-0.04539643277669825,-0.0024311346451497684,-0.00011349108194175228,-6.077836612883303e-06,-0.00011548877023028116,-0.04619550809210863,True,,False
48,198-5320,line.ln5513564-1,0.7386359632626351,1,-0.045396428878603956,-0.002431024425703754,-0.00011349107219654764,-6.077561064299353e-06,-0.00011548866991663677,-0.04619546796663435,True,,False
48,198-5320,line.ln5775442-1,0.7389632358967514,1,-0.04539688292010169,-0.0024371636052080703,-0.00011349220730028087,-6.092909013044601e-06,-0.00011549484964716967,-0.046197939858853995,True,,False
48,198-5320,line.ln5896798-1,0.7389631134349844,1,-0.04539687216444577,-0.0024369336974245925,-0.0001134921804111233,-6.092334243590347e-06,-0.00011549463384042833,-0.046197853536163985,True,,False
48,198-5320,line.ln5714974-1,0.7389627607642875,1,-0.045396841418181566,-0.002436295477053818,-0.00011349210354544281,-6.090738692621223e-06,-0.0001154940325425053,-0.04619761301700831,True,,False
48,198-5320,line.ln5473414-1,0.7389624379136263,1,-0.045396813653724166,-0.0024357386587041674,-0.00011349203413429931,-6.089346646753757e-06,-0.00011549350558801148,-0.04619740223520991,True,,False
48,198-5320,line.ln5742828-2,0.7389622212322231,1,-0.04539679519385231,-0.0024353779729437974,-0.00011349198798465965,-6.088444932328407e-06,-0.0001154931630591728,-0.04619726522366166,True,,False
48,198-5320,line.ln5742828-1,0.7389621407654026,1,-0.04539678835331529,-0.0024352465335368834,-0.00011349197088328378,-6.088116333846649e-06,-0.00011549303795269898,-0.04619721518108079,True,,False
48,198-5320,line.ln5815900-1,0.7389620777863074,1,-0.04539678315663309,-0.002435144491784058,-0.00011349195789156497,-6.087861229464586e-06,-0.00011549294111222462,-0.04619717644489637,True,,False
48,198-5320,line.a8735_48332_sw,0.7389620777723644,1,-0.04539678322879581,-0.002435144057386651,-0.00011349195807203172,-6.0878601434444235e-06,-0.00011549294093573381,-0.04619717637427957,True,,False
48,221-242079,line.tpx21459660c0,0.921928783908269,1,-0.0003305142213179124,-0.0015922209263123932,-2.1186809058826306e-06,-1.0206544399427031e-05,-5.473409818776642e-06,-0.000853851931729962,False,,False
48,221-242079,line.tpx260595c0,0.88052243525726,2,-0.0003027273335192149,-0.0014297213464118386,-1.9405598302713045e-06,-9.164880425738264e-06,-4.952910352076365e-06,-0.0007726540149197096,False,,False
48,221-242079,line.tpx226308719b0,0.8378205528959566,1,-0.0003862457278103193,-0.0014619641820132756,-2.475934152645909e-06,-9.3715652693116e-06,-5.556218697314904e-06,-0.0008667701167789014,False,,False
48,221-242079,line.tpx226308710b0,0.824335386020771,2,-0.00037930607888370105,-0.0014356971803124452,-2.431449223627702e-06,-9.203187053330453e-06,-5.456390525045321e-06,-0.0008511969219025141,False,,False
48,221-242079,line.tpx21197413c0,0.8387955193469668,1,-0.00029961134416112145,-0.0014410132135793674,-1.9205855394943683e-06,-9.237264189609906e-06,-4.956727453957057e-06,-0.0007732494828173739,False,,False
48,221-242079,line.tpx2224230689c0,0.8297197938577449,2,-0.00028924900821891697,-0.0013912878663688844,-1.8541603091226655e-06,-8.918511963884601e-06,-4.7855334334990614e-06,-0.0007465432156225835,False,,False
48,221-242079,line.tpx226308725b0,0.7817574327988267,2,-0.00035888165457720334,-0.0013583894577564593,-2.3005234268125285e-06,-8.707624729209495e-06,-5.162581269166093e-06,-0.0008053626779842863,False,,False
48,221-242079,line.ln6291242-1,0.738636336205966,1,-0.04534466089535272,-0.002416763331183347,-0.00011336165223840844,-6.041908327925061e-06,-0.00011534753147074521,-0.046139012588291804,True,,False
48,221-242079,line.ln5654466-1,0.7386361552440057,1,-0.04534464440197894,-0.0024163708063156264,-0.00011336161100494735,-6.040927015782405e-06,-0.00011534716769558061,-0.04613886707823312,True,,False
48,221-242079,line.ln6321409-1,0.7386360170936264,1,-0.04534463189295934,-0.002416080918976604,-0.00011336157973240724,-6.04020229744151e-06,-0.00011534689821964111,-0.046138759287852896,True,,False
48,221-242079,line.xj171_48332_sw,0.7386360171466864,1,-0.045344631651943246,-0.002416080175805746,-0.00011336157912983369,-6.04020043953879e-06,-0.00011534689700640447,-0.04613875880256835,True,,False
48,221-242079,line.ln5513564-1,0.7386359632626351,1,-0.045344627025485806,-0.00241596963860502,-0.00011336156756369675,-6.0399240965347545e-06,-0.00011534679461071454,-0.04613871784429,True,,False
48,221-242079,line.ln5775442-1,0.7389632358967514,1,-0.045345077271747414,-0.0024221077205481834,-0.0001133626931794085,-6.055269301363797e-06,-0.0001153529639513443,-0.04614118558052261,True,,False
48,221-242079,line.ln5896798-1,0.7389631134349844,1,-0.04534506662966464,-0.0024218778434885735,-0.00011336266657419047,-6.054694608681466e-06,-0.00011535274845377623,-0.0461410993815042,True,,False
48,221-242079,line.ln5714974-1,0.7389627607642875,1,-0.04534503630338804,-0.002421239731717151,-0.00011336259075850341,-6.053099329328404e-06,-0.0001153521482951225,-0.046140859318031004,True,,False
48,221-242079,line.ln5473414-1,0.7389624379136263,1,-0.04534500885415582,-0.002420683006789659,-0.00011336252213539622,-6.051707516996352e-06,-0.00011535162220542436,-0.04614064888216416,True,,False
48,221-242079,line.ln5742828-2,0.7389622212322231,1,-0.04534499063734643,-0.0024203223848360267,-0.00011336247659338161,-6.050805962110051e-06,-0.00011535128033664868,-0.046140512134650626,True,,False
48,221-242079,line.ln5742828-1,0.7389621407654026,1,-0.04534498394806974,-0.0024201909377268294,-0.00011336245987020321,-6.050477344310412e-06,-0.00011535115560202287,-0.04614046224079848,True,,False
48,221-242079,line.ln5815900-1,0.7389620777863074,1,-0.045344978676268966,-0.0024200888935013154,-0.00011336244669063467,-6.0502222337111e-06,-0.00011535105857165526,-0.04614042342868275,True,,False
48,221-242079,line.a8735_48332_sw,0.7389620777723644,1,-0.04534497822473327,-0.002420088353318306,-0.0001133624455618154,-6.050220883291324e-06,-0.00011535105699897448,-0.046140422799597486,True,,False
48,221-308718,line.tpx21459660c0,0.921928783908269,1,-0.0008075076343629917,-0.0028219584874022985,-5.1763309895092036e-06,-1.8089477483385075e-05,-1.1122054709288821e-05,-0.0017350405346467145,False,,False
48,221-308718,line.tpx260595c0,0.88052243525726,2,-0.0007270801749683642,-0.0024537758648079944,-4.660770352382659e-06,-1.5729332466740686e-05,-9.830751919274163e-06,-0.001533597299402271,False,,False
48,221-308718,line.tpx226308719b0,0.8378205528959566,1,-0.001512833924849133,-0.0027336769940404793,-9.697653364393322e-06,-1.7523570474631267e-05,-1.5457372445386247e-05,-0.0024113501014833725,False,,False
48,221-308718,line.tpx226308710b0,0.824335386020771,2,-0.001485652948332472,-0.002684561220547721,-9.523416335477375e-06,-1.7208725772765998e-05,-1.5179650967367408e-05,-0.0023680255509060766,False,,False
48,221-308718,line.tpx21197413c0,0.8387955193469668,1,-0.0007330864180659091,-0.0025542027679961166,-4.699271910657554e-06,-1.6373094666621846e-05,-1.0080847880164973e-05,-0.0015726122693100883,False,,False
48,221-308718,line.tpx2224230689c0,0.8297197938577449,2,-0.0007076179126812576,-0.0024656690612800958,-4.536012260747402e-06,-1.5805570905635946e-05,-9.731052190707426e-06,-0.0015180441417553135,False,,False
48,221-308718,line.tpx226308725b0,0.7817574327988267,2,-0.0014056552682291112,-0.002540006145089535,-9.01061069374931e-06,-1.628209067366937e-05,-1.4362275097265442e-05,-0.002240514915176679,False,,False
48,221-308718,line.ln6291242-1,0.738636336205966,1,-0.048038708137056574,-0.0028063741515893526,-0.000120096770342637,-7.015935378995586e-06,-0.00012240279678467489,-0.04896111871386881,True,,False
48,221-308718,line.ln5654466-1,0.7386361552440057,1,-0.048038650964798535,-0.002805965838973634,-0.00012009662741196969,-7.014914597425204e-06,-0.00012240231833933053,-0.048960927335744045,True,,False
48,221-308718,line.ln6321409-1,0.7386360170936264,1,-0.04803860843250618,-0.002805664315786771,-0.00012009652108124769,-7.014160789464707e-06,-0.00012240196424391357,-0.048960785697572826,True,,False
48,221-308718,line.xj171_48332_sw,0.7386360171466864,1,-0.048038608451037135,-0.0028056640986164894,-0.00012009652112754399,-7.014160246565648e-06,-0.00012240196411176756,-0.04896078564472336,True,,False
48,221-308718,line.ln5513564-1,0.7386359632626351,1,-0.04803859200094962,-0.0028055486516223027,-0.00012009648000232964,-7.013871629046875e-06,-0.00012240182812256234,-0.04896073124904386,True,,False
48,221-308718,line.ln5775442-1,0.7389632358967514,1,-0.04803969134670183,-0.0028119356979630084,-0.00012009922836675457,-7.029839244887537e-06,-0.00012240982478851169,-0.0489639299154073,True,,False
48,221-308718,line.ln5896798-1,0.7389631134349844,1,-0.04803965683470324,-0.0028116966086315642,-0.00012009914208677142,-7.029241521572249e-06,-0.0001224095420463755,-0.048963816818545745,True,,False
48,221-308718,line.ln5714974-1,0.7389627607642875,1,-0.04803956022928446,-0.002811032753584186,-0.00012009890057324002,-7.027581883978229e-06,-0.0001224087550363466,-0.048963502014524755,True,,False
48,221-308718,line.ln5473414-1,0.7389624379136263,1,-0.04803947495449279,-0.0028104536111754896,-0.00012009868738621643,-7.0261340279209605e-06,-0.0001224080659620504,-0.04896322638482871,True,,False
48,221-308718,line.ln5742828-2,0.7389622212322231,1,-0.048039419195902155,-0.0028100784597597794,-0.00012009854798972208,-7.0251961494238735e-06,-0.00012240761829980146,-0.048963047319930696,True,,False
48,221-308718,line.ln5742828-1,0.7389621407654026,1,-0.04803939885951536,-0.002809941671131355,-0.00012009849714877951,-7.0248541778061835e-06,-0.00012240745505822374,-0.048962982023295964,True,,False
48,221-308718,line.ln5815900-1,0.7389620777863074,1,-0.04803938289987286,-0.0028098355792280927,-0.00012009845724969548,-7.0245889480791135e-06,-0.0001224073279823442,-0.04896293119293118,True,,False
48,221-308718,line.a8735_48332_sw,0.7389620777723644,1,-0.048039383063013474,-0.00280983521639655,-0.0001200984576574804,-7.024588040971391e-06,-0.00012240732809197722,-0.04896293123681483,True,,False
48,221-311359,line.tpx21459660c0,0.921928783908269,1,-0.00033186216343494834,-0.0015926079395143233,-2.1273215604633577e-06,-1.020902525328271e-05,-5.4828658905870025e-06,-0.0008553270789349668,False,,False
48,221-311359,line.tpx260595c0,0.88052243525726,2,-0.0003039326844174184,-0.0014300681890802025,-1.9482864385689247e-06,-9.167103776130947e-06,-4.961367740308303e-06,-0.000773973367490002,False,,False
48,221-311359,line.tpx226308719b0,0.8378205528959566,1,-0.0003875054574251635,-0.0014623331124994365,-2.4840093424960408e-06,-9.37393020827848e-06,-5.565071205013168e-06,-0.0008681511079804627,False,,False
48,221-311359,line.tpx226308710b0,0.824335386020771,2,-0.0003805431749270838,-0.0014360594821880568,-2.4393793264798624e-06,-9.205509501175602e-06,-5.4650839795892884e-06,-0.0008525531008136869,False,,False
48,221-311359,line.tpx21197413c0,0.8387955193469668,1,-0.000300831629360232,-0.0014413635163919025,-1.928407880491534e-06,-9.239509720426753e-06,-4.9652878652414095e-06,-0.0007745849069829642,False,,False
48,221-311359,line.tpx2224230689c0,0.8297197938577449,2,-0.00029042685882529895,-0.0013916260140689474,-1.8617106334883893e-06,-8.9206795773622e-06,-4.793796217961044e-06,-0.000747832210003179,False,,False
48,221-311359,line.tpx226308725b0,0.7817574327988267,2,-0.00036005213731016283,-0.0013587322500185905,-2.308026521236073e-06,-8.709822115537946e-06,-5.170806609548736e-06,-0.0008066458310851867,False,,False
48,221-311359,line.ln6291242-1,0.738636336205966,1,-0.04539669917537026,-0.002431884269213924,-0.000113491747938399,-6.079710673012606e-06,-0.00011549005220070453,-0.04619602088029539,True,,False
48,221-311359,line.ln5654466-1,0.7386361552440057,1,-0.04539668241773143,-0.0024314916884122795,-0.00011349170604435521,-6.07872922103736e-06,-0.00011548968771899649,-0.04619587508758706,True,,False
48,221-311359,line.ln6321409-1,0.7386360170936264,1,-0.04539666972439704,-0.0024312017479530823,-0.00011349167431101703,-6.078004369913792e-06,-0.00011548941773861536,-0.04619576709543229,True,,False
48,221-311359,line.xj171_48332_sw,0.7386360171466864,1,-0.04539666928093311,-0.0024312012966163365,-0.00011349167320229281,-6.078003241538621e-06,-0.00011548941625901215,-0.046195766503621144,True,,False
48,221-311359,line.ln5513564-1,0.7386359632626351,1,-0.045396664773761586,-0.002431090437880812,-0.00011349166193441729,-6.077726094677605e-06,-0.00011548931389736862,-0.046195725558945334,True,,False
48,221-311359,line.ln5775442-1,0.7389632358967514,1,-0.045397118956032045,-0.0024372295935677357,-0.00011349279739009122,-6.093073983914898e-06,-0.00011549549396028289,-0.0461981975841093,True,,False
48,221-311359,line.ln5896798-1,0.7389631134349844,1,-0.04539710816504794,-0.002436999735294876,-0.00011349277041267092,-6.092499338250512e-06,-0.0001154952781059666,-0.04619811124236446,True,,False
48,221-311359,line.ln5714974-1,0.7389627607642875,1,-0.0453970774368031,-0.0024363614611218054,-0.00011349269359200997,-6.090903652777868e-06,-0.00011549467680885393,-0.04619787072354419,True,,False
48,221-311359,line.ln5473414-1,0.7389624379136263,1,-0.0453970496842544,-0.0024358046485701834,-0.00011349262421062045,-6.089511621398813e-06,-0.00011549414988887622,-0.0461976599555602,True,,False
48,221-311359,line.ln5742828-2,0.7389622212322231,1,-0.04539703125161054,-0.0024354439957505747,-0.00011349257812903746,-6.088609989407523e-06,-0.00011549380745518896,-0.04619752298206706,True,,False
48,221-311359,line.ln5742828-1,0.7389621407654026,1,-0.045397024492018545,-0.0024353125227776218,-0.00011349256123005524,-6.088281306937393e-06,-0.00011549368252350316,-0.04619747300939859,True,,False
48,221-311359,line.ln5815900-1,0.7389620777863074,1,-0.04539701904730009,-0.0024352103317539786,-0.00011349254761827687,-6.08802582935386e-06,-0.00011549358494030385,-0.04619743397611497,True,,False
48,221-311359,line.a8735_48332_sw,0.7389620777723644,1,-0.04539701874867319,-0.0024352096209554475,-0.0001134925468717074,-6.088024052386398e-06,-0.00011549358360967342,-0.04619743344385989,True,,False
...
